!- GreenFlow Step 13B+ evidence-based PTAC model
!- Mode B+ preserves 308 Step10 zones and zone_id/eplus_zone_name mapping.
!- Simplified zone-level PTAC; not full IFC AirLoopHVAC/PlantLoop topology.
Version,
  26.1;

SimulationControl,
  Yes,
  Yes,
  No,
  No,
  Yes;

Building,
  GreenFlow_MVP_Building,
  0,
  City,
  0.04,
  0.4,
  FullExterior;

Timestep,
  2;

SizingPeriod:DesignDay,
  GreenFlow_Hanoi_Summer_Design_Day,
  7,
  21,
  SummerDesignDay,
  35,
  8,
  ,
  ,
  Wetbulb,
  26,
  ,
  ,
  ,
  ,
  101325,
  3,
  180,
  No,
  No,
  No,
  ASHRAEClearSky,
  ,
  ,
  ,
  ,
  1;

SizingPeriod:DesignDay,
  GreenFlow_Hanoi_Winter_Design_Day,
  1,
  21,
  WinterDesignDay,
  12,
  5,
  ,
  ,
  Wetbulb,
  8,
  ,
  ,
  ,
  ,
  101325,
  3,
  0,
  No,
  No,
  No,
  ASHRAEClearSky,
  ,
  ,
  ,
  ,
  0.8;

RunPeriod,
  Annual_Run,
  1,
  1,
  ,
  12,
  31,
  ,
  Monday,
  Yes,
  Yes,
  No,
  Yes,
  Yes;

GlobalGeometryRules,
  UpperLeftCorner,
  Counterclockwise,
  Relative,
  Relative,
  Relative;

Site:Location,
  Hanoi.City,
  21.03,
  105.85,
  7,
  10;

Site:GroundTemperature:BuildingSurface,
  18,
  18,
  20,
  23,
  26,
  28,
  29,
  29,
  27,
  25,
  22,
  19;

Material,
  Default_Material_Mass,
  MediumRough,
  0.2,
  1,
  1000,
  1000;

Material:NoMass,
  Default_Insulation,
  MediumRough,
  2;

Construction,
  Default_Wall_Construction,
  Default_Material_Mass,
  Default_Insulation;

Construction,
  Default_Roof_Construction,
  Default_Material_Mass,
  Default_Insulation;

Construction,
  Default_Floor_Construction,
  Default_Material_Mass;

ScheduleTypeLimits,
  Fraction,
  0,
  1,
  CONTINUOUS;

ScheduleTypeLimits,
  Temperature,
  -60,
  200,
  CONTINUOUS,
  Temperature;

ScheduleTypeLimits,
  Any Number;

ScheduleTypeLimits,
  Control Type,
  0,
  4,
  DISCRETE;

Schedule:Compact,
  Always_On,
  Fraction,
  Through: 12/31,
  For: AllDays,
  Until: 24:00,
  1;

Schedule:Compact,
  DualSetpoint_Control_Type,
  Control Type,
  Through: 12/31,
  For: AllDays,
  Until: 24:00,
  4;

Schedule:Compact,
  Activity_Level_Default,
  Any Number,
  Through: 12/31,
  For: AllDays,
  Until: 24:00,
  120;

Schedule:Compact,
  GreenFlow_Occupancy_Schedule,
  Fraction,
  Through: 12/31,
  For: Weekdays,
  Until: 06:00,
  0.05,
  Until: 07:00,
  0.1,
  Until: 08:00,
  0.35,
  Until: 09:00,
  0.75,
  Until: 12:00,
  1,
  Until: 13:00,
  0.6,
  Until: 17:00,
  1,
  Until: 18:00,
  0.65,
  Until: 20:00,
  0.25,
  Until: 22:00,
  0.1,
  Until: 24:00,
  0.05,
  For: Saturday,
  Until: 07:00,
  0.03,
  Until: 08:00,
  0.1,
  Until: 12:00,
  0.45,
  Until: 14:00,
  0.25,
  Until: 18:00,
  0.15,
  Until: 24:00,
  0.03,
  For: AllOtherDays,
  Until: 24:00,
  0.03;

Schedule:Compact,
  GreenFlow_Lights_Schedule,
  Fraction,
  Through: 12/31,
  For: Weekdays,
  Until: 06:00,
  0.05,
  Until: 07:00,
  0.1,
  Until: 08:00,
  0.35,
  Until: 09:00,
  0.75,
  Until: 12:00,
  0.95,
  Until: 13:00,
  0.7,
  Until: 17:00,
  0.95,
  Until: 18:00,
  0.7,
  Until: 20:00,
  0.35,
  Until: 22:00,
  0.15,
  Until: 24:00,
  0.05,
  For: Saturday,
  Until: 07:00,
  0.03,
  Until: 08:00,
  0.1,
  Until: 12:00,
  0.5,
  Until: 14:00,
  0.3,
  Until: 18:00,
  0.2,
  Until: 24:00,
  0.03,
  For: AllOtherDays,
  Until: 24:00,
  0.03;

Schedule:Compact,
  GreenFlow_Equipment_Schedule,
  Fraction,
  Through: 12/31,
  For: Weekdays,
  Until: 06:00,
  0.1,
  Until: 07:00,
  0.15,
  Until: 08:00,
  0.35,
  Until: 09:00,
  0.75,
  Until: 12:00,
  0.9,
  Until: 13:00,
  0.65,
  Until: 17:00,
  0.9,
  Until: 18:00,
  0.65,
  Until: 20:00,
  0.35,
  Until: 22:00,
  0.2,
  Until: 24:00,
  0.1,
  For: Saturday,
  Until: 07:00,
  0.08,
  Until: 08:00,
  0.15,
  Until: 12:00,
  0.45,
  Until: 14:00,
  0.3,
  Until: 18:00,
  0.2,
  Until: 24:00,
  0.08,
  For: AllOtherDays,
  Until: 24:00,
  0.08;

Schedule:Compact,
  GreenFlow_HVAC_Availability_Schedule,
  Fraction,
  Through: 12/31,
  For: Weekdays,
  Until: 06:30,
  0,
  Until: 08:00,
  0.5,
  Until: 18:00,
  1,
  Until: 19:00,
  0.5,
  Until: 24:00,
  0,
  For: Saturday,
  Until: 07:30,
  0,
  Until: 12:30,
  0.5,
  Until: 24:00,
  0,
  For: AllOtherDays,
  Until: 24:00,
  0;

Schedule:Compact,
  GreenFlow_Cooling_Setpoint_Schedule_Baseline25,
  Temperature,
  Through: 12/31,
  For: Weekdays,
  Until: 06:30,
  28,
  Until: 08:00,
  25,
  Until: 18:00,
  25,
  Until: 19:00,
  25,
  Until: 24:00,
  28,
  For: Saturday,
  Until: 07:30,
  28,
  Until: 12:30,
  25,
  Until: 24:00,
  28,
  For: AllOtherDays,
  Until: 24:00,
  28;

Schedule:Compact,
  GreenFlow_Heating_Setpoint_Schedule,
  Temperature,
  Through: 12/31,
  For: Weekdays,
  Until: 06:30,
  16,
  Until: 08:00,
  20,
  Until: 18:00,
  20,
  Until: 19:00,
  20,
  Until: 24:00,
  16,
  For: Saturday,
  Until: 07:30,
  16,
  Until: 12:30,
  20,
  Until: 24:00,
  16,
  For: AllOtherDays,
  Until: 24:00,
  16;

Zone,
  ZN_0001_12B24915,
  0,
  0,
  0,
  13.1943,
  1,
  1,
  3.8,
  96.4991,
  25.3945,
  ,
  ,
  Yes;

BuildingSurface:Detailed,
  ZN_0001_12B24915_FLOOR,
  Floor,
  Default_Floor_Construction,
  ZN_0001_12B24915,
  ,
  Ground,
  ,
  NoSun,
  NoWind,
  0,
  4,
  0,
  5.03929,
  0,
  5.03929,
  5.03929,
  0,
  5.03929,
  0,
  0,
  0,
  0,
  0;

BuildingSurface:Detailed,
  ZN_0001_12B24915_ROOF,
  Roof,
  Default_Roof_Construction,
  ZN_0001_12B24915,
  ,
  Outdoors,
  ,
  SunExposed,
  WindExposed,
  0,
  4,
  0,
  0,
  3.8,
  5.03929,
  0,
  3.8,
  5.03929,
  5.03929,
  3.8,
  0,
  5.03929,
  3.8;

BuildingSurface:Detailed,
  ZN_0001_12B24915_WALL_N,
  Wall,
  Default_Wall_Construction,
  ZN_0001_12B24915,
  ,
  Outdoors,
  ,
  SunExposed,
  WindExposed,
  0,
  4,
  0,
  5.03929,
  0,
  0,
  5.03929,
  3.8,
  5.03929,
  5.03929,
  3.8,
  5.03929,
  5.03929,
  0;

BuildingSurface:Detailed,
  ZN_0001_12B24915_WALL_E,
  Wall,
  Default_Wall_Construction,
  ZN_0001_12B24915,
  ,
  Outdoors,
  ,
  SunExposed,
  WindExposed,
  0,
  4,
  5.03929,
  0,
  0,
  5.03929,
  5.03929,
  0,
  5.03929,
  5.03929,
  3.8,
  5.03929,
  0,
  3.8;

BuildingSurface:Detailed,
  ZN_0001_12B24915_WALL_S,
  Wall,
  Default_Wall_Construction,
  ZN_0001_12B24915,
  ,
  Outdoors,
  ,
  SunExposed,
  WindExposed,
  0,
  4,
  0,
  0,
  0,
  5.03929,
  0,
  0,
  5.03929,
  0,
  3.8,
  0,
  0,
  3.8;

BuildingSurface:Detailed,
  ZN_0001_12B24915_WALL_W,
  Wall,
  Default_Wall_Construction,
  ZN_0001_12B24915,
  ,
  Outdoors,
  ,
  SunExposed,
  WindExposed,
  0,
  4,
  0,
  0,
  0,
  0,
  0,
  3.8,
  0,
  5.03929,
  3.8,
  0,
  5.03929,
  0;

People,
  ZN_0001_12B24915_People,
  ZN_0001_12B24915,
  GreenFlow_Occupancy_Schedule,
  People,
  1.0158,
  ,
  ,
  0.3,
  ,
  Activity_Level_Default;

Lights,
  ZN_0001_12B24915_Lights,
  ZN_0001_12B24915,
  GreenFlow_Lights_Schedule,
  Watts/Area,
  ,
  6,
  ,
  0,
  0.4,
  0.2;

ElectricEquipment,
  ZN_0001_12B24915_Equipment,
  ZN_0001_12B24915,
  GreenFlow_Equipment_Schedule,
  Watts/Area,
  ,
  2,
  ,
  0,
  0.5,
  0;
DesignSpecification:OutdoorAir,
  ZN_0001_12B24915_OutdoorAir,
  Sum,
  0.00944,
  0.0003,
  ,
  ;

ZoneInfiltration:DesignFlowRate,
  ZN_0001_12B24915_Infiltration,
  ZN_0001_12B24915,
  Always_On,
  AirChanges/Hour,
  ,
  ,
  ,
  0.3;

Sizing:Zone,
  ZN_0001_12B24915,
  SupplyAirTemperature,
  12.8,
  ,
  SupplyAirTemperature,
  50,
  ,
  0.008,
  0.008,
  ZN_0001_12B24915_OutdoorAir,
  ,
  ,
  DesignDay,
  ,
  ,
  ,
  ,
  DesignDay,
  ,
  ,
  ,
  ;
Zone,
  ZN_0002_2F584023,
  0,
  7.03929,
  0,
  13.1943,
  1,
  1,
  3.8,
  102.919,
  27.084,
  ,
  ,
  Yes;

BuildingSurface:Detailed,
  ZN_0002_2F584023_FLOOR,
  Floor,
  Default_Floor_Construction,
  ZN_0002_2F584023,
  ,
  Ground,
  ,
  NoSun,
  NoWind,
  0,
  4,
  0,
  5.20423,
  0,
  5.20423,
  5.20423,
  0,
  5.20423,
  0,
  0,
  0,
  0,
  0;

BuildingSurface:Detailed,
  ZN_0002_2F584023_ROOF,
  Roof,
  Default_Roof_Construction,
  ZN_0002_2F584023,
  ,
  Outdoors,
  ,
  SunExposed,
  WindExposed,
  0,
  4,
  0,
  0,
  3.8,
  5.20423,
  0,
  3.8,
  5.20423,
  5.20423,
  3.8,
  0,
  5.20423,
  3.8;

BuildingSurface:Detailed,
  ZN_0002_2F584023_WALL_N,
  Wall,
  Default_Wall_Construction,
  ZN_0002_2F584023,
  ,
  Outdoors,
  ,
  SunExposed,
  WindExposed,
  0,
  4,
  0,
  5.20423,
  0,
  0,
  5.20423,
  3.8,
  5.20423,
  5.20423,
  3.8,
  5.20423,
  5.20423,
  0;

BuildingSurface:Detailed,
  ZN_0002_2F584023_WALL_E,
  Wall,
  Default_Wall_Construction,
  ZN_0002_2F584023,
  ,
  Outdoors,
  ,
  SunExposed,
  WindExposed,
  0,
  4,
  5.20423,
  0,
  0,
  5.20423,
  5.20423,
  0,
  5.20423,
  5.20423,
  3.8,
  5.20423,
  0,
  3.8;

BuildingSurface:Detailed,
  ZN_0002_2F584023_WALL_S,
  Wall,
  Default_Wall_Construction,
  ZN_0002_2F584023,
  ,
  Outdoors,
  ,
  SunExposed,
  WindExposed,
  0,
  4,
  0,
  0,
  0,
  5.20423,
  0,
  0,
  5.20423,
  0,
  3.8,
  0,
  0,
  3.8;

BuildingSurface:Detailed,
  ZN_0002_2F584023_WALL_W,
  Wall,
  Default_Wall_Construction,
  ZN_0002_2F584023,
  ,
  Outdoors,
  ,
  SunExposed,
  WindExposed,
  0,
  4,
  0,
  0,
  0,
  0,
  0,
  3.8,
  0,
  5.20423,
  3.8,
  0,
  5.20423,
  0;

People,
  ZN_0002_2F584023_People,
  ZN_0002_2F584023,
  GreenFlow_Occupancy_Schedule,
  People,
  1.0834,
  ,
  ,
  0.3,
  ,
  Activity_Level_Default;

Lights,
  ZN_0002_2F584023_Lights,
  ZN_0002_2F584023,
  GreenFlow_Lights_Schedule,
  Watts/Area,
  ,
  6,
  ,
  0,
  0.4,
  0.2;

ElectricEquipment,
  ZN_0002_2F584023_Equipment,
  ZN_0002_2F584023,
  GreenFlow_Equipment_Schedule,
  Watts/Area,
  ,
  2,
  ,
  0,
  0.5,
  0;
DesignSpecification:OutdoorAir,
  ZN_0002_2F584023_OutdoorAir,
  Sum,
  0.00944,
  0.0003,
  ,
  ;

ZoneInfiltration:DesignFlowRate,
  ZN_0002_2F584023_Infiltration,
  ZN_0002_2F584023,
  Always_On,
  AirChanges/Hour,
  ,
  ,
  ,
  0.3;

Sizing:Zone,
  ZN_0002_2F584023,
  SupplyAirTemperature,
  12.8,
  ,
  SupplyAirTemperature,
  50,
  ,
  0.008,
  0.008,
  ZN_0002_2F584023_OutdoorAir,
  ,
  ,
  DesignDay,
  ,
  ,
  ,
  ,
  DesignDay,
  ,
  ,
  ,
  ;
Zone,
  ZN_0003_4700456C,
  0,
  14.2435,
  0,
  13.1943,
  1,
  1,
  3.8,
  58.8768,
  15.4939,
  ,
  ,
  Yes;

BuildingSurface:Detailed,
  ZN_0003_4700456C_FLOOR,
  Floor,
  Default_Floor_Construction,
  ZN_0003_4700456C,
  ,
  Ground,
  ,
  NoSun,
  NoWind,
  0,
  4,
  0,
  3.93623,
  0,
  3.93623,
  3.93623,
  0,
  3.93623,
  0,
  0,
  0,
  0,
  0;

BuildingSurface:Detailed,
  ZN_0003_4700456C_ROOF,
  Roof,
  Default_Roof_Construction,
  ZN_0003_4700456C,
  ,
  Outdoors,
  ,
  SunExposed,
  WindExposed,
  0,
  4,
  0,
  0,
  3.8,
  3.93623,
  0,
  3.8,
  3.93623,
  3.93623,
  3.8,
  0,
  3.93623,
  3.8;

BuildingSurface:Detailed,
  ZN_0003_4700456C_WALL_N,
  Wall,
  Default_Wall_Construction,
  ZN_0003_4700456C,
  ,
  Outdoors,
  ,
  SunExposed,
  WindExposed,
  0,
  4,
  0,
  3.93623,
  0,
  0,
  3.93623,
  3.8,
  3.93623,
  3.93623,
  3.8,
  3.93623,
  3.93623,
  0;

BuildingSurface:Detailed,
  ZN_0003_4700456C_WALL_E,
  Wall,
  Default_Wall_Construction,
  ZN_0003_4700456C,
  ,
  Outdoors,
  ,
  SunExposed,
  WindExposed,
  0,
  4,
  3.93623,
  0,
  0,
  3.93623,
  3.93623,
  0,
  3.93623,
  3.93623,
  3.8,
  3.93623,
  0,
  3.8;

BuildingSurface:Detailed,
  ZN_0003_4700456C_WALL_S,
  Wall,
  Default_Wall_Construction,
  ZN_0003_4700456C,
  ,
  Outdoors,
  ,
  SunExposed,
  WindExposed,
  0,
  4,
  0,
  0,
  0,
  3.93623,
  0,
  0,
  3.93623,
  0,
  3.8,
  0,
  0,
  3.8;

BuildingSurface:Detailed,
  ZN_0003_4700456C_WALL_W,
  Wall,
  Default_Wall_Construction,
  ZN_0003_4700456C,
  ,
  Outdoors,
  ,
  SunExposed,
  WindExposed,
  0,
  4,
  0,
  0,
  0,
  0,
  0,
  3.8,
  0,
  3.93623,
  3.8,
  0,
  3.93623,
  0;

People,
  ZN_0003_4700456C_People,
  ZN_0003_4700456C,
  GreenFlow_Occupancy_Schedule,
  People,
  0.6198,
  ,
  ,
  0.3,
  ,
  Activity_Level_Default;

Lights,
  ZN_0003_4700456C_Lights,
  ZN_0003_4700456C,
  GreenFlow_Lights_Schedule,
  Watts/Area,
  ,
  6,
  ,
  0,
  0.4,
  0.2;

ElectricEquipment,
  ZN_0003_4700456C_Equipment,
  ZN_0003_4700456C,
  GreenFlow_Equipment_Schedule,
  Watts/Area,
  ,
  2,
  ,
  0,
  0.5,
  0;
DesignSpecification:OutdoorAir,
  ZN_0003_4700456C_OutdoorAir,
  Sum,
  0.00944,
  0.0003,
  ,
  ;

ZoneInfiltration:DesignFlowRate,
  ZN_0003_4700456C_Infiltration,
  ZN_0003_4700456C,
  Always_On,
  AirChanges/Hour,
  ,
  ,
  ,
  0.3;

Sizing:Zone,
  ZN_0003_4700456C,
  SupplyAirTemperature,
  12.8,
  ,
  SupplyAirTemperature,
  50,
  ,
  0.008,
  0.008,
  ZN_0003_4700456C_OutdoorAir,
  ,
  ,
  DesignDay,
  ,
  ,
  ,
  ,
  DesignDay,
  ,
  ,
  ,
  ;
Zone,
  ZN_0004_25E92350,
  0,
  20.1798,
  0,
  13.1943,
  1,
  1,
  3.8,
  62.4876,
  16.4441,
  ,
  ,
  Yes;

BuildingSurface:Detailed,
  ZN_0004_25E92350_FLOOR,
  Floor,
  Default_Floor_Construction,
  ZN_0004_25E92350,
  ,
  Ground,
  ,
  NoSun,
  NoWind,
  0,
  4,
  0,
  4.05513,
  0,
  4.05513,
  4.05513,
  0,
  4.05513,
  0,
  0,
  0,
  0,
  0;

BuildingSurface:Detailed,
  ZN_0004_25E92350_ROOF,
  Roof,
  Default_Roof_Construction,
  ZN_0004_25E92350,
  ,
  Outdoors,
  ,
  SunExposed,
  WindExposed,
  0,
  4,
  0,
  0,
  3.8,
  4.05513,
  0,
  3.8,
  4.05513,
  4.05513,
  3.8,
  0,
  4.05513,
  3.8;

BuildingSurface:Detailed,
  ZN_0004_25E92350_WALL_N,
  Wall,
  Default_Wall_Construction,
  ZN_0004_25E92350,
  ,
  Outdoors,
  ,
  SunExposed,
  WindExposed,
  0,
  4,
  0,
  4.05513,
  0,
  0,
  4.05513,
  3.8,
  4.05513,
  4.05513,
  3.8,
  4.05513,
  4.05513,
  0;

BuildingSurface:Detailed,
  ZN_0004_25E92350_WALL_E,
  Wall,
  Default_Wall_Construction,
  ZN_0004_25E92350,
  ,
  Outdoors,
  ,
  SunExposed,
  WindExposed,
  0,
  4,
  4.05513,
  0,
  0,
  4.05513,
  4.05513,
  0,
  4.05513,
  4.05513,
  3.8,
  4.05513,
  0,
  3.8;

BuildingSurface:Detailed,
  ZN_0004_25E92350_WALL_S,
  Wall,
  Default_Wall_Construction,
  ZN_0004_25E92350,
  ,
  Outdoors,
  ,
  SunExposed,
  WindExposed,
  0,
  4,
  0,
  0,
  0,
  4.05513,
  0,
  0,
  4.05513,
  0,
  3.8,
  0,
  0,
  3.8;

BuildingSurface:Detailed,
  ZN_0004_25E92350_WALL_W,
  Wall,
  Default_Wall_Construction,
  ZN_0004_25E92350,
  ,
  Outdoors,
  ,
  SunExposed,
  WindExposed,
  0,
  4,
  0,
  0,
  0,
  0,
  0,
  3.8,
  0,
  4.05513,
  3.8,
  0,
  4.05513,
  0;

People,
  ZN_0004_25E92350_People,
  ZN_0004_25E92350,
  GreenFlow_Occupancy_Schedule,
  People,
  3.2888,
  ,
  ,
  0.3,
  ,
  Activity_Level_Default;

Lights,
  ZN_0004_25E92350_Lights,
  ZN_0004_25E92350,
  GreenFlow_Lights_Schedule,
  Watts/Area,
  ,
  10,
  ,
  0,
  0.4,
  0.2;

ElectricEquipment,
  ZN_0004_25E92350_Equipment,
  ZN_0004_25E92350,
  GreenFlow_Equipment_Schedule,
  Watts/Area,
  ,
  15,
  ,
  0,
  0.5,
  0;
DesignSpecification:OutdoorAir,
  ZN_0004_25E92350_OutdoorAir,
  Sum,
  0.00944,
  0.0003,
  ,
  ;

ZoneInfiltration:DesignFlowRate,
  ZN_0004_25E92350_Infiltration,
  ZN_0004_25E92350,
  Always_On,
  AirChanges/Hour,
  ,
  ,
  ,
  0.3;

Sizing:Zone,
  ZN_0004_25E92350,
  SupplyAirTemperature,
  12.8,
  ,
  SupplyAirTemperature,
  50,
  ,
  0.008,
  0.008,
  ZN_0004_25E92350_OutdoorAir,
  ,
  ,
  DesignDay,
  ,
  ,
  ,
  ,
  DesignDay,
  ,
  ,
  ,
  ;
Zone,
  ZN_0005_EFA813DD,
  0,
  26.2349,
  0,
  13.1943,
  1,
  1,
  3.6,
  580.687,
  161.302,
  ,
  ,
  Yes;

BuildingSurface:Detailed,
  ZN_0005_EFA813DD_FLOOR,
  Floor,
  Default_Floor_Construction,
  ZN_0005_EFA813DD,
  ,
  Ground,
  ,
  NoSun,
  NoWind,
  0,
  4,
  0,
  12.7005,
  0,
  12.7005,
  12.7005,
  0,
  12.7005,
  0,
  0,
  0,
  0,
  0;

BuildingSurface:Detailed,
  ZN_0005_EFA813DD_ROOF,
  Roof,
  Default_Roof_Construction,
  ZN_0005_EFA813DD,
  ,
  Outdoors,
  ,
  SunExposed,
  WindExposed,
  0,
  4,
  0,
  0,
  3.6,
  12.7005,
  0,
  3.6,
  12.7005,
  12.7005,
  3.6,
  0,
  12.7005,
  3.6;

BuildingSurface:Detailed,
  ZN_0005_EFA813DD_WALL_N,
  Wall,
  Default_Wall_Construction,
  ZN_0005_EFA813DD,
  ,
  Outdoors,
  ,
  SunExposed,
  WindExposed,
  0,
  4,
  0,
  12.7005,
  0,
  0,
  12.7005,
  3.6,
  12.7005,
  12.7005,
  3.6,
  12.7005,
  12.7005,
  0;

BuildingSurface:Detailed,
  ZN_0005_EFA813DD_WALL_E,
  Wall,
  Default_Wall_Construction,
  ZN_0005_EFA813DD,
  ,
  Outdoors,
  ,
  SunExposed,
  WindExposed,
  0,
  4,
  12.7005,
  0,
  0,
  12.7005,
  12.7005,
  0,
  12.7005,
  12.7005,
  3.6,
  12.7005,
  0,
  3.6;

BuildingSurface:Detailed,
  ZN_0005_EFA813DD_WALL_S,
  Wall,
  Default_Wall_Construction,
  ZN_0005_EFA813DD,
  ,
  Outdoors,
  ,
  SunExposed,
  WindExposed,
  0,
  4,
  0,
  0,
  0,
  12.7005,
  0,
  0,
  12.7005,
  0,
  3.6,
  0,
  0,
  3.6;

BuildingSurface:Detailed,
  ZN_0005_EFA813DD_WALL_W,
  Wall,
  Default_Wall_Construction,
  ZN_0005_EFA813DD,
  ,
  Outdoors,
  ,
  SunExposed,
  WindExposed,
  0,
  4,
  0,
  0,
  0,
  0,
  0,
  3.6,
  0,
  12.7005,
  3.6,
  0,
  12.7005,
  0;

People,
  ZN_0005_EFA813DD_People,
  ZN_0005_EFA813DD,
  GreenFlow_Occupancy_Schedule,
  People,
  32.2604,
  ,
  ,
  0.3,
  ,
  Activity_Level_Default;

Lights,
  ZN_0005_EFA813DD_Lights,
  ZN_0005_EFA813DD,
  GreenFlow_Lights_Schedule,
  Watts/Area,
  ,
  10,
  ,
  0,
  0.4,
  0.2;

ElectricEquipment,
  ZN_0005_EFA813DD_Equipment,
  ZN_0005_EFA813DD,
  GreenFlow_Equipment_Schedule,
  Watts/Area,
  ,
  15,
  ,
  0,
  0.5,
  0;
DesignSpecification:OutdoorAir,
  ZN_0005_EFA813DD_OutdoorAir,
  Sum,
  0.00944,
  0.0003,
  ,
  ;

ZoneInfiltration:DesignFlowRate,
  ZN_0005_EFA813DD_Infiltration,
  ZN_0005_EFA813DD,
  Always_On,
  AirChanges/Hour,
  ,
  ,
  ,
  0.3;

Sizing:Zone,
  ZN_0005_EFA813DD,
  SupplyAirTemperature,
  12.8,
  ,
  SupplyAirTemperature,
  50,
  ,
  0.008,
  0.008,
  ZN_0005_EFA813DD_OutdoorAir,
  ,
  ,
  DesignDay,
  ,
  ,
  ,
  ,
  DesignDay,
  ,
  ,
  ,
  ;
Zone,
  ZN_0006_4407D7F3,
  0,
  40.9354,
  0,
  13.1943,
  1,
  1,
  3.8,
  28.8612,
  7.59506,
  ,
  ,
  Yes;

BuildingSurface:Detailed,
  ZN_0006_4407D7F3_FLOOR,
  Floor,
  Default_Floor_Construction,
  ZN_0006_4407D7F3,
  ,
  Ground,
  ,
  NoSun,
  NoWind,
  0,
  4,
  0,
  2.75591,
  0,
  2.75591,
  2.75591,
  0,
  2.75591,
  0,
  0,
  0,
  0,
  0;

BuildingSurface:Detailed,
  ZN_0006_4407D7F3_ROOF,
  Roof,
  Default_Roof_Construction,
  ZN_0006_4407D7F3,
  ,
  Outdoors,
  ,
  SunExposed,
  WindExposed,
  0,
  4,
  0,
  0,
  3.8,
  2.75591,
  0,
  3.8,
  2.75591,
  2.75591,
  3.8,
  0,
  2.75591,
  3.8;

BuildingSurface:Detailed,
  ZN_0006_4407D7F3_WALL_N,
  Wall,
  Default_Wall_Construction,
  ZN_0006_4407D7F3,
  ,
  Outdoors,
  ,
  SunExposed,
  WindExposed,
  0,
  4,
  0,
  2.75591,
  0,
  0,
  2.75591,
  3.8,
  2.75591,
  2.75591,
  3.8,
  2.75591,
  2.75591,
  0;

BuildingSurface:Detailed,
  ZN_0006_4407D7F3_WALL_E,
  Wall,
  Default_Wall_Construction,
  ZN_0006_4407D7F3,
  ,
  Outdoors,
  ,
  SunExposed,
  WindExposed,
  0,
  4,
  2.75591,
  0,
  0,
  2.75591,
  2.75591,
  0,
  2.75591,
  2.75591,
  3.8,
  2.75591,
  0,
  3.8;

BuildingSurface:Detailed,
  ZN_0006_4407D7F3_WALL_S,
  Wall,
  Default_Wall_Construction,
  ZN_0006_4407D7F3,
  ,
  Outdoors,
  ,
  SunExposed,
  WindExposed,
  0,
  4,
  0,
  0,
  0,
  2.75591,
  0,
  0,
  2.75591,
  0,
  3.8,
  0,
  0,
  3.8;

BuildingSurface:Detailed,
  ZN_0006_4407D7F3_WALL_W,
  Wall,
  Default_Wall_Construction,
  ZN_0006_4407D7F3,
  ,
  Outdoors,
  ,
  SunExposed,
  WindExposed,
  0,
  4,
  0,
  0,
  0,
  0,
  0,
  3.8,
  0,
  2.75591,
  3.8,
  0,
  2.75591,
  0;

People,
  ZN_0006_4407D7F3_People,
  ZN_0006_4407D7F3,
  GreenFlow_Occupancy_Schedule,
  People,
  0.3038,
  ,
  ,
  0.3,
  ,
  Activity_Level_Default;

Lights,
  ZN_0006_4407D7F3_Lights,
  ZN_0006_4407D7F3,
  GreenFlow_Lights_Schedule,
  Watts/Area,
  ,
  6,
  ,
  0,
  0.4,
  0.2;

ElectricEquipment,
  ZN_0006_4407D7F3_Equipment,
  ZN_0006_4407D7F3,
  GreenFlow_Equipment_Schedule,
  Watts/Area,
  ,
  2,
  ,
  0,
  0.5,
  0;
DesignSpecification:OutdoorAir,
  ZN_0006_4407D7F3_OutdoorAir,
  Sum,
  0.00944,
  0.0003,
  ,
  ;

ZoneInfiltration:DesignFlowRate,
  ZN_0006_4407D7F3_Infiltration,
  ZN_0006_4407D7F3,
  Always_On,
  AirChanges/Hour,
  ,
  ,
  ,
  0.3;

Sizing:Zone,
  ZN_0006_4407D7F3,
  SupplyAirTemperature,
  12.8,
  ,
  SupplyAirTemperature,
  50,
  ,
  0.008,
  0.008,
  ZN_0006_4407D7F3_OutdoorAir,
  ,
  ,
  DesignDay,
  ,
  ,
  ,
  ,
  DesignDay,
  ,
  ,
  ,
  ;
Zone,
  ZN_0007_D6F3BDF2,
  0,
  45.6913,
  0,
  13.1943,
  1,
  1,
  3.8,
  400.991,
  105.524,
  ,
  ,
  Yes;

BuildingSurface:Detailed,
  ZN_0007_D6F3BDF2_FLOOR,
  Floor,
  Default_Floor_Construction,
  ZN_0007_D6F3BDF2,
  ,
  Ground,
  ,
  NoSun,
  NoWind,
  0,
  4,
  0,
  10.2725,
  0,
  10.2725,
  10.2725,
  0,
  10.2725,
  0,
  0,
  0,
  0,
  0;

BuildingSurface:Detailed,
  ZN_0007_D6F3BDF2_ROOF,
  Roof,
  Default_Roof_Construction,
  ZN_0007_D6F3BDF2,
  ,
  Outdoors,
  ,
  SunExposed,
  WindExposed,
  0,
  4,
  0,
  0,
  3.8,
  10.2725,
  0,
  3.8,
  10.2725,
  10.2725,
  3.8,
  0,
  10.2725,
  3.8;

BuildingSurface:Detailed,
  ZN_0007_D6F3BDF2_WALL_N,
  Wall,
  Default_Wall_Construction,
  ZN_0007_D6F3BDF2,
  ,
  Outdoors,
  ,
  SunExposed,
  WindExposed,
  0,
  4,
  0,
  10.2725,
  0,
  0,
  10.2725,
  3.8,
  10.2725,
  10.2725,
  3.8,
  10.2725,
  10.2725,
  0;

BuildingSurface:Detailed,
  ZN_0007_D6F3BDF2_WALL_E,
  Wall,
  Default_Wall_Construction,
  ZN_0007_D6F3BDF2,
  ,
  Outdoors,
  ,
  SunExposed,
  WindExposed,
  0,
  4,
  10.2725,
  0,
  0,
  10.2725,
  10.2725,
  0,
  10.2725,
  10.2725,
  3.8,
  10.2725,
  0,
  3.8;

BuildingSurface:Detailed,
  ZN_0007_D6F3BDF2_WALL_S,
  Wall,
  Default_Wall_Construction,
  ZN_0007_D6F3BDF2,
  ,
  Outdoors,
  ,
  SunExposed,
  WindExposed,
  0,
  4,
  0,
  0,
  0,
  10.2725,
  0,
  0,
  10.2725,
  0,
  3.8,
  0,
  0,
  3.8;

BuildingSurface:Detailed,
  ZN_0007_D6F3BDF2_WALL_W,
  Wall,
  Default_Wall_Construction,
  ZN_0007_D6F3BDF2,
  ,
  Outdoors,
  ,
  SunExposed,
  WindExposed,
  0,
  4,
  0,
  0,
  0,
  0,
  0,
  3.8,
  0,
  10.2725,
  3.8,
  0,
  10.2725,
  0;

People,
  ZN_0007_D6F3BDF2_People,
  ZN_0007_D6F3BDF2,
  GreenFlow_Occupancy_Schedule,
  People,
  2.1105,
  ,
  ,
  0.3,
  ,
  Activity_Level_Default;

Lights,
  ZN_0007_D6F3BDF2_Lights,
  ZN_0007_D6F3BDF2,
  GreenFlow_Lights_Schedule,
  Watts/Area,
  ,
  4,
  ,
  0,
  0.4,
  0.2;

ElectricEquipment,
  ZN_0007_D6F3BDF2_Equipment,
  ZN_0007_D6F3BDF2,
  GreenFlow_Equipment_Schedule,
  Watts/Area,
  ,
  1,
  ,
  0,
  0.5,
  0;
DesignSpecification:OutdoorAir,
  ZN_0007_D6F3BDF2_OutdoorAir,
  Sum,
  0.002,
  0.0001,
  ,
  ;

ZoneInfiltration:DesignFlowRate,
  ZN_0007_D6F3BDF2_Infiltration,
  ZN_0007_D6F3BDF2,
  Always_On,
  AirChanges/Hour,
  ,
  ,
  ,
  0.3;

Sizing:Zone,
  ZN_0007_D6F3BDF2,
  SupplyAirTemperature,
  12.8,
  ,
  SupplyAirTemperature,
  50,
  ,
  0.008,
  0.008,
  ZN_0007_D6F3BDF2_OutdoorAir,
  ,
  ,
  DesignDay,
  ,
  ,
  ,
  ,
  DesignDay,
  ,
  ,
  ,
  ;
Zone,
  ZN_0008_AACD45D4,
  0,
  57.9638,
  0,
  13.1943,
  1,
  1,
  3.8,
  40.0065,
  10.528,
  ,
  ,
  Yes;

BuildingSurface:Detailed,
  ZN_0008_AACD45D4_FLOOR,
  Floor,
  Default_Floor_Construction,
  ZN_0008_AACD45D4,
  ,
  Ground,
  ,
  NoSun,
  NoWind,
  0,
  4,
  0,
  3.24469,
  0,
  3.24469,
  3.24469,
  0,
  3.24469,
  0,
  0,
  0,
  0,
  0;

BuildingSurface:Detailed,
  ZN_0008_AACD45D4_ROOF,
  Roof,
  Default_Roof_Construction,
  ZN_0008_AACD45D4,
  ,
  Outdoors,
  ,
  SunExposed,
  WindExposed,
  0,
  4,
  0,
  0,
  3.8,
  3.24469,
  0,
  3.8,
  3.24469,
  3.24469,
  3.8,
  0,
  3.24469,
  3.8;

BuildingSurface:Detailed,
  ZN_0008_AACD45D4_WALL_N,
  Wall,
  Default_Wall_Construction,
  ZN_0008_AACD45D4,
  ,
  Outdoors,
  ,
  SunExposed,
  WindExposed,
  0,
  4,
  0,
  3.24469,
  0,
  0,
  3.24469,
  3.8,
  3.24469,
  3.24469,
  3.8,
  3.24469,
  3.24469,
  0;

BuildingSurface:Detailed,
  ZN_0008_AACD45D4_WALL_E,
  Wall,
  Default_Wall_Construction,
  ZN_0008_AACD45D4,
  ,
  Outdoors,
  ,
  SunExposed,
  WindExposed,
  0,
  4,
  3.24469,
  0,
  0,
  3.24469,
  3.24469,
  0,
  3.24469,
  3.24469,
  3.8,
  3.24469,
  0,
  3.8;

BuildingSurface:Detailed,
  ZN_0008_AACD45D4_WALL_S,
  Wall,
  Default_Wall_Construction,
  ZN_0008_AACD45D4,
  ,
  Outdoors,
  ,
  SunExposed,
  WindExposed,
  0,
  4,
  0,
  0,
  0,
  3.24469,
  0,
  0,
  3.24469,
  0,
  3.8,
  0,
  0,
  3.8;

BuildingSurface:Detailed,
  ZN_0008_AACD45D4_WALL_W,
  Wall,
  Default_Wall_Construction,
  ZN_0008_AACD45D4,
  ,
  Outdoors,
  ,
  SunExposed,
  WindExposed,
  0,
  4,
  0,
  0,
  0,
  0,
  0,
  3.8,
  0,
  3.24469,
  3.8,
  0,
  3.24469,
  0;

People,
  ZN_0008_AACD45D4_People,
  ZN_0008_AACD45D4,
  GreenFlow_Occupancy_Schedule,
  People,
  2.1056,
  ,
  ,
  0.3,
  ,
  Activity_Level_Default;

Lights,
  ZN_0008_AACD45D4_Lights,
  ZN_0008_AACD45D4,
  GreenFlow_Lights_Schedule,
  Watts/Area,
  ,
  10,
  ,
  0,
  0.4,
  0.2;

ElectricEquipment,
  ZN_0008_AACD45D4_Equipment,
  ZN_0008_AACD45D4,
  GreenFlow_Equipment_Schedule,
  Watts/Area,
  ,
  15,
  ,
  0,
  0.5,
  0;
DesignSpecification:OutdoorAir,
  ZN_0008_AACD45D4_OutdoorAir,
  Sum,
  0.00944,
  0.0003,
  ,
  ;

ZoneInfiltration:DesignFlowRate,
  ZN_0008_AACD45D4_Infiltration,
  ZN_0008_AACD45D4,
  Always_On,
  AirChanges/Hour,
  ,
  ,
  ,
  0.3;

Sizing:Zone,
  ZN_0008_AACD45D4,
  SupplyAirTemperature,
  12.8,
  ,
  SupplyAirTemperature,
  50,
  ,
  0.008,
  0.008,
  ZN_0008_AACD45D4_OutdoorAir,
  ,
  ,
  DesignDay,
  ,
  ,
  ,
  ,
  DesignDay,
  ,
  ,
  ,
  ;
Zone,
  ZN_0009_4DD171D8,
  0,
  63.2084,
  0,
  13.1943,
  1,
  1,
  3.8,
  560.283,
  147.443,
  ,
  ,
  Yes;

BuildingSurface:Detailed,
  ZN_0009_4DD171D8_FLOOR,
  Floor,
  Default_Floor_Construction,
  ZN_0009_4DD171D8,
  ,
  Ground,
  ,
  NoSun,
  NoWind,
  0,
  4,
  0,
  12.1426,
  0,
  12.1426,
  12.1426,
  0,
  12.1426,
  0,
  0,
  0,
  0,
  0;

BuildingSurface:Detailed,
  ZN_0009_4DD171D8_ROOF,
  Roof,
  Default_Roof_Construction,
  ZN_0009_4DD171D8,
  ,
  Outdoors,
  ,
  SunExposed,
  WindExposed,
  0,
  4,
  0,
  0,
  3.8,
  12.1426,
  0,
  3.8,
  12.1426,
  12.1426,
  3.8,
  0,
  12.1426,
  3.8;

BuildingSurface:Detailed,
  ZN_0009_4DD171D8_WALL_N,
  Wall,
  Default_Wall_Construction,
  ZN_0009_4DD171D8,
  ,
  Outdoors,
  ,
  SunExposed,
  WindExposed,
  0,
  4,
  0,
  12.1426,
  0,
  0,
  12.1426,
  3.8,
  12.1426,
  12.1426,
  3.8,
  12.1426,
  12.1426,
  0;

BuildingSurface:Detailed,
  ZN_0009_4DD171D8_WALL_E,
  Wall,
  Default_Wall_Construction,
  ZN_0009_4DD171D8,
  ,
  Outdoors,
  ,
  SunExposed,
  WindExposed,
  0,
  4,
  12.1426,
  0,
  0,
  12.1426,
  12.1426,
  0,
  12.1426,
  12.1426,
  3.8,
  12.1426,
  0,
  3.8;

BuildingSurface:Detailed,
  ZN_0009_4DD171D8_WALL_S,
  Wall,
  Default_Wall_Construction,
  ZN_0009_4DD171D8,
  ,
  Outdoors,
  ,
  SunExposed,
  WindExposed,
  0,
  4,
  0,
  0,
  0,
  12.1426,
  0,
  0,
  12.1426,
  0,
  3.8,
  0,
  0,
  3.8;

BuildingSurface:Detailed,
  ZN_0009_4DD171D8_WALL_W,
  Wall,
  Default_Wall_Construction,
  ZN_0009_4DD171D8,
  ,
  Outdoors,
  ,
  SunExposed,
  WindExposed,
  0,
  4,
  0,
  0,
  0,
  0,
  0,
  3.8,
  0,
  12.1426,
  3.8,
  0,
  12.1426,
  0;

People,
  ZN_0009_4DD171D8_People,
  ZN_0009_4DD171D8,
  GreenFlow_Occupancy_Schedule,
  People,
  5.8977,
  ,
  ,
  0.3,
  ,
  Activity_Level_Default;

Lights,
  ZN_0009_4DD171D8_Lights,
  ZN_0009_4DD171D8,
  GreenFlow_Lights_Schedule,
  Watts/Area,
  ,
  6,
  ,
  0,
  0.4,
  0.2;

ElectricEquipment,
  ZN_0009_4DD171D8_Equipment,
  ZN_0009_4DD171D8,
  GreenFlow_Equipment_Schedule,
  Watts/Area,
  ,
  2,
  ,
  0,
  0.5,
  0;
DesignSpecification:OutdoorAir,
  ZN_0009_4DD171D8_OutdoorAir,
  Sum,
  0.00944,
  0.0003,
  ,
  ;

ZoneInfiltration:DesignFlowRate,
  ZN_0009_4DD171D8_Infiltration,
  ZN_0009_4DD171D8,
  Always_On,
  AirChanges/Hour,
  ,
  ,
  ,
  0.3;

Sizing:Zone,
  ZN_0009_4DD171D8,
  SupplyAirTemperature,
  12.8,
  ,
  SupplyAirTemperature,
  50,
  ,
  0.008,
  0.008,
  ZN_0009_4DD171D8_OutdoorAir,
  ,
  ,
  DesignDay,
  ,
  ,
  ,
  ,
  DesignDay,
  ,
  ,
  ,
  ;
Zone,
  ZN_0010_CDF1301F,
  0,
  0,
  0,
  10.4,
  1,
  1,
  4.2,
  1126.16,
  268.134,
  ,
  ,
  Yes;

BuildingSurface:Detailed,
  ZN_0010_CDF1301F_FLOOR,
  Floor,
  Default_Floor_Construction,
  ZN_0010_CDF1301F,
  ,
  Ground,
  ,
  NoSun,
  NoWind,
  0,
  4,
  0,
  16.3748,
  0,
  16.3748,
  16.3748,
  0,
  16.3748,
  0,
  0,
  0,
  0,
  0;

BuildingSurface:Detailed,
  ZN_0010_CDF1301F_ROOF,
  Roof,
  Default_Roof_Construction,
  ZN_0010_CDF1301F,
  ,
  Outdoors,
  ,
  SunExposed,
  WindExposed,
  0,
  4,
  0,
  0,
  4.2,
  16.3748,
  0,
  4.2,
  16.3748,
  16.3748,
  4.2,
  0,
  16.3748,
  4.2;

BuildingSurface:Detailed,
  ZN_0010_CDF1301F_WALL_N,
  Wall,
  Default_Wall_Construction,
  ZN_0010_CDF1301F,
  ,
  Outdoors,
  ,
  SunExposed,
  WindExposed,
  0,
  4,
  0,
  16.3748,
  0,
  0,
  16.3748,
  4.2,
  16.3748,
  16.3748,
  4.2,
  16.3748,
  16.3748,
  0;

BuildingSurface:Detailed,
  ZN_0010_CDF1301F_WALL_E,
  Wall,
  Default_Wall_Construction,
  ZN_0010_CDF1301F,
  ,
  Outdoors,
  ,
  SunExposed,
  WindExposed,
  0,
  4,
  16.3748,
  0,
  0,
  16.3748,
  16.3748,
  0,
  16.3748,
  16.3748,
  4.2,
  16.3748,
  0,
  4.2;

BuildingSurface:Detailed,
  ZN_0010_CDF1301F_WALL_S,
  Wall,
  Default_Wall_Construction,
  ZN_0010_CDF1301F,
  ,
  Outdoors,
  ,
  SunExposed,
  WindExposed,
  0,
  4,
  0,
  0,
  0,
  16.3748,
  0,
  0,
  16.3748,
  0,
  4.2,
  0,
  0,
  4.2;

BuildingSurface:Detailed,
  ZN_0010_CDF1301F_WALL_W,
  Wall,
  Default_Wall_Construction,
  ZN_0010_CDF1301F,
  ,
  Outdoors,
  ,
  SunExposed,
  WindExposed,
  0,
  4,
  0,
  0,
  0,
  0,
  0,
  4.2,
  0,
  16.3748,
  4.2,
  0,
  16.3748,
  0;

People,
  ZN_0010_CDF1301F_People,
  ZN_0010_CDF1301F,
  GreenFlow_Occupancy_Schedule,
  People,
  10.7254,
  ,
  ,
  0.3,
  ,
  Activity_Level_Default;

Lights,
  ZN_0010_CDF1301F_Lights,
  ZN_0010_CDF1301F,
  GreenFlow_Lights_Schedule,
  Watts/Area,
  ,
  6,
  ,
  0,
  0.4,
  0.2;

ElectricEquipment,
  ZN_0010_CDF1301F_Equipment,
  ZN_0010_CDF1301F,
  GreenFlow_Equipment_Schedule,
  Watts/Area,
  ,
  2,
  ,
  0,
  0.5,
  0;
DesignSpecification:OutdoorAir,
  ZN_0010_CDF1301F_OutdoorAir,
  Sum,
  0.00944,
  0.0003,
  ,
  ;

ZoneInfiltration:DesignFlowRate,
  ZN_0010_CDF1301F_Infiltration,
  ZN_0010_CDF1301F,
  Always_On,
  AirChanges/Hour,
  ,
  ,
  ,
  0.3;

Sizing:Zone,
  ZN_0010_CDF1301F,